Version 4
SHEET 1 880 680
SYMBOL Modelcapteur 208 160 R0
SYMATTR InstName X1
