Version 4
SHEET 1 880 680
WIRE -112 48 -112 -80
WIRE 480 48 160 48
WIRE 160 112 160 48
WIRE -112 160 -112 128
WIRE 16 160 -112 160
WIRE -112 192 -112 160
WIRE 160 272 160 192
WIRE 480 272 160 272
WIRE -112 368 -112 256
FLAG 480 48 cp
IOPIN 480 48 BiDir
FLAG 480 272 cn
IOPIN 480 272 BiDir
FLAG -112 -80 gp
IOPIN -112 -80 BiDir
FLAG -112 368 gn
IOPIN -112 368 BiDir
FLAG 16 160 gc
IOPIN 16 160 BiDir
SYMBOL bi 160 112 R0
SYMATTR InstName B1
SYMATTR Value I=V(cp,cn)*(10n+10n*V(gc,gn))
SYMBOL res -128 32 R0
SYMATTR InstName R1
SYMATTR Value 1k
SYMBOL cap -128 192 R0
SYMATTR InstName C1
SYMATTR Value 200µ
